<?xml version="1.0" encoding="UTF-8"?>
<configuration>
    <input>
        <net-file value="mon_reseau.net.xml"/>
        <route-files value="mes_routes.rou.xml"/>
    </input>

    <time>
        <begin value="0"/>
        <end value="3600"/>
    </time>

    <processing>
        <time-to-teleport value="-1"/>
    </processing>

    <report>
        <verbose value="true"/>
    </report>
</configuration>
