<?xml version="1.0" encoding="UTF-8"?>
<configuration>
    <input>
        <net-file value="mon_reseau_simple.net.xml"/>
        <route-files value="mes_routes.rou.xml"/>
    </input>
    <time>
        <begin value="0"/>
        <end value="3600"/>
        <step-length value="0.1"/>
    </time>
</configuration>
